Version 4
SHEET 1 2116 680
WIRE -144 -48 -272 -48
WIRE -16 -48 -144 -48
WIRE 272 -48 -16 -48
WIRE 368 -48 272 -48
WIRE -272 112 -272 -48
WIRE -16 144 -16 -48
WIRE -144 160 -144 -48
WIRE -96 160 -144 160
WIRE -48 160 -96 160
WIRE 272 160 272 -48
WIRE 272 160 224 160
WIRE 96 176 16 176
WIRE 176 176 96 176
WIRE -96 192 -272 192
WIRE -48 192 -96 192
WIRE -272 208 -272 192
WIRE 272 256 224 256
WIRE 272 288 272 256
WIRE -272 304 -272 272
WIRE -16 336 -16 208
WIRE 272 400 272 368
FLAG 272 400 0
FLAG 368 32 0
FLAG -272 304 0
FLAG 96 176 Vo
FLAG -96 160 Vn
FLAG -96 192 Vp
FLAG -16 336 0
SYMBOL voltage 368 -64 R0
WINDOW 123 0 0 Left 0
WINDOW 39 0 0 Left 0
SYMATTR InstName V2
SYMATTR Value PULSE(8.4 5 0 .5 1p 1p .5 1)
SYMBOL pmos 176 256 M180
SYMATTR InstName M1
SYMATTR Value Si2301CDS
SYMATTR Prefix x
SYMBOL res 256 272 R0
SYMATTR InstName R1
SYMATTR Value 100
SYMBOL OpAmps\\opamp2 -16 112 R0
SYMATTR InstName U1
SYMATTR Value TL071
SYMBOL zener -256 272 R180
WINDOW 0 24 64 Left 2
WINDOW 3 24 0 Left 2
SYMATTR InstName D1
SYMATTR Value zmm5v6
SYMATTR Prefix x
SYMATTR Description Diode
SYMATTR Type diode
SYMBOL res -288 96 R0
SYMATTR InstName R2
SYMATTR Value 100k
TEXT 376 232 Left 2 !.lib "C:\\Users\\thean\\OneDrive\\Documents\\1. Uni Work\\HPR\\Liaka-Flight-Computer\\V3\\Simulations\\SPICE_MODELS\\si2301cds_ps_rc Rev B.lib"
TEXT 376 264 Left 2 !.lib "C:\\Users\\thean\\OneDrive\\Documents\\1. Uni Work\\HPR\\Liaka-Flight-Computer\\V3\\Simulations\\SPICE_MODELS\\lm393.lib"
TEXT -360 424 Left 2 !.tran 0 .5 0 .1
TEXT 376 296 Left 2 !.lib C:\\Users\\thean\\OneDrive\\Documents\\1. Uni Work\\HPR\\Liaka-Flight-Computer\\V3\\Simulations\\SPICE_MODELS\\ZMM5V6.lib
TEXT 376 328 Left 2 !.lib C:\\Users\\thean\\OneDrive\\Documents\\1. Uni Work\\HPR\\Liaka-Flight-Computer\\V3\\Simulations\\SPICE_MODELS\\TL071.lib
