Version 4
SHEET 1 880 680
WIRE -240 -16 -288 -16
WIRE -128 -16 -160 -16
WIRE -416 48 -416 32
WIRE -416 160 -416 128
WIRE 352 160 352 144
WIRE -160 224 -160 -16
WIRE -128 224 -160 224
WIRE 272 240 -64 240
WIRE 304 240 272 240
WIRE -288 256 -288 208
WIRE -128 256 -288 256
WIRE -288 304 -288 256
WIRE -96 304 -96 272
WIRE 352 336 352 256
FLAG -416 160 0
FLAG -416 32 +BATT
FLAG -96 304 0
FLAG -96 208 +BATT
FLAG -288 368 0
FLAG -288 128 +BATT
FLAG -128 -96 0
FLAG -288 -16 +BATT
FLAG 352 416 0
FLAG 352 144 +BATT
FLAG 272 320 0
SYMBOL voltage -416 32 R0
WINDOW 3 -370 60 Left 2
WINDOW 123 0 0 Left 0
WINDOW 39 0 0 Left 0
SYMATTR InstName V1
SYMATTR Value PULSE(7.5 12.6 2 2 2 2 6 1)
SYMBOL Opamps\\opamp2 -96 176 R0
SYMATTR InstName U1
SYMATTR Value LM393
SYMBOL zener -272 368 R180
WINDOW 0 24 64 Left 2
WINDOW 3 24 0 Left 2
SYMATTR InstName D1
SYMATTR Value BZX84B6V2L
SYMATTR Description Diode
SYMATTR Type diode
SYMBOL res -304 112 R0
SYMATTR InstName R1
SYMATTR Value 100k
SYMBOL res -144 -32 R90
WINDOW 0 0 56 VBottom 2
WINDOW 3 32 56 VTop 2
SYMATTR InstName R2
SYMATTR Value 50k
SYMBOL res -144 -112 R0
SYMATTR InstName R3
SYMATTR Value 100k
SYMBOL pmos 304 160 R0
SYMATTR InstName M1
SYMATTR Value Si4401DY
SYMBOL res 336 320 R0
SYMATTR InstName R4
SYMATTR Value 3
SYMBOL res 256 224 R0
SYMATTR InstName R5
SYMATTR Value 100k
TEXT 0 352 Left 2 !.tran 0 6 0 0.001 startup
TEXT -160 368 Left 2 !.inc LM393.5_1
TEXT 32 408 Left 2 !.param SIG=3
