**$ENCRYPTED_LIB
**$INTERFACE
* PSpice Model Editor - Version 16.0.0
*$
*LM4041_N
*****************************************************************************
*  (C) Copyright 2013 Texas Instruments Incorporated. All rights reserved.
*****************************************************************************
** This model is designed as an aid for customers of Texas Instruments.
** TI and its licensors and suppliers make no warranties, either expressed
** or implied, with respect to this model, including the warranties of 
** merchantability or fitness for a particular purpose.  The model is
** provided solely on an "as is" basis.  The entire risk as to its quality
** and performance is with the customer
*****************************************************************************
*
** Released by: WEBENCH Design Center,Texas Instruments Inc.
* Part: LM4041_N
* Date: 08APR2013
* Model Type: TRANSIENT
* Simulator: PSPICE
* Simulator Version: 16.0.0
* EVM Order Number: N/A
* EVM Users Guide: N/A
* Datasheet: SNOS641D-MAY 2004-REVISED APRIL 2005
*
* Model Version: Final 1.00
*
*****************************************************************************
*
* Updates:
*
* Final 1.00
* Release to Web.
*
******************************************************************************
.SUBCKT LM4041_NE1P2  V+ V- PARAMS: TOL=1
$CDNENCSTART
eee8c5c7a2bc4b01f045f303678664e7916da0bae22e8cb0bba041dd67c69ce448ea70148a9ac1670c8926c1ac5057c8ccfcd77bf87ca9dce778dd8c9f92d1e3
5352ed9a7eaf74a9706b807646b803715fdf4fcd929a7e14daf3796e008269a68c0fab00abef36a99b383a575bd24967df9b28c6a4a52af7d50865ea8fd8d5f0
3724d3f37eeea07f5afe4f8e0010b28d4f812f67b5d83701454e92c4ac0803e0a98283774c731a92cbae422026e9c61c63b9c679a93c10d46efad725f7a86389
fcfac5a776b3c7daaf14b7c938fb7d38125876ca529fbcd60fa3edc537cd0d17f9715f7ddd5ff1399b383a575bd24967df9b28c6a4a52af7d50865ea8fd8d5f0
64053fbe649decb85afe4f8e0010b28d78bbda26dbc77342318820ea660f51957345d1dbe157591b5573dce62d275425d58563b160d22b67c2a29c96d7023652
a0930926c771b6cd5afe4f8e0010b28da8b4f6ad32f83d265aaab1900850ac2f7345d1dbe157591b006fd8f4a33ce7b7a9440213208f18f961c4e7c6a932b5af
252f4c842243ec93adfbfde0a93715cd571b883c7a34092c6af16ebc99a23710ef89349e3b92da53d0c29b4aecaa8283a826d51a2274ac76a93fd123522b685a
3e357ee55c14488aadfbfde0a93715cde55cefd606b8e73ba0bc3dc52ad2f46f6fb1d233ade4c007a725a4dc88644efca9440213208f18f961c4e7c6a932b5af
4b85b686fcf7403d0302a8c30efa8edde04124705b9fa056111f24db61775ec0e9ebdf6af31887bf226a7c067aead4e8d0c29b4aecaa8283fef5ab313ac3449d
717cdf892ff6b6ffd05ee9f4a2babc05036aac3408917ef0a7a44656b8ab3cdd478a87bc5b8e6cf9de553f33863babbe19c6dbe9cf12e26183a336b9b044fff3
e96aaee4f78c19f45afe4f8e0010b28dc094ef2aee302ab2c61bc278adc9ccd4f71d3bc7f7d3e4605573dce62d275425d58563b160d22b67c2a29c96d7023652
904e90e8e5b2fbfd5afe4f8e0010b28df813c9134970ea75fc2e85c1f050ec15478a87bc5b8e6cf9de553f33863babbe19c6dbe9cf12e26183a336b9b044fff3
4f75e2444c7e47605afe4f8e0010b28d7eb9d962e3af691e2ac242761e3b7763a67e7a96e2ecce82ef89349e3b92da53d0c29b4aecaa8283fef5ab313ac3449d
cec16ac1ee44e4c7706b807646b80371c3ec949a6f44320915c70963aea2cadbae00ac7d1db53cb63ecfb4feaf868f20cbae422026e9c61caba8f4016853f8ac
5637fcfd860683a95afe4f8e0010b28d7a25f37a3b4248a2bbc56299c191d6549645e0dd9984026e582255115d8ad586791095c5c8b553e004b08ff433d79053
0b9df3e93ec616265afe4f8e0010b28d7a85ffc4eb5565632ac242761e3b7763a67e7a96e2ecce823330ba1d5ebc0153a9440213208f18f961c4e7c6a932b5af
ccda5ee1e6c26ff65afe4f8e0010b28d504dbe129bb0cf22058e66d55c8e8c33089eb3aee0d92af8a9440213208f18f93493a0ea277932293c882c810e43c845
705d459f50f7a08c9e031e0d8580ec80ecb26c1d6ad112d145651cfa58d042df9645e0dd9984026e582255115d8ad586791095c5c8b553e004b08ff433d79053
88d8cffec4b073add48eff679202ff9015c70963aea2cadb82fc8e9487d78f273ecfb4feaf868f20cbae422026e9c61c63b9c679a93c10d46efad725f7a86389
b90e0c5fe970b387adfbfde0a93715cdba29ee0850c7f4034d559955d8a585548c0fab00abef36a99b383a575bd24967df9b28c6a4a52af7d50865ea8fd8d5f0
7ccb825fdd22996e706b807646b80371f4d44dad3a0250ef462343c94bc963112cebe04b8d65779af45be999de0153f89d94d0c4d7980de1a3089b4abd32a0c7
5bc64a788665fcf906c51131619f1ce8de553f33863babbe19c6dbe9cf12e261bdddb17c1dc99e0546d60bbe62e0ed673305b3997972e3489e0ee680b2e885bb
e9dc2a28e35b84aad0c29b4aecaa8283a826d51a2274ac76612ff6d89bfbd2aed22fb248ae1a6a7e3a47ccec9d60828316048cd33d35d851db7705583f8d71d6
f966d44174846ac2d48eff679202ff90cb805d6a9019f508c12e9edf33cba287250c9ca925d85173d0c29b4aecaa8283a826d51a2274ac76a93fd123522b685a
f7bb42a6e0b7b8ea5afe4f8e0010b28d7d9acd0db2ccb2ec8cbc8f3491aea3996fb1d233ade4c007e61acd0acf2132ecd58563b160d22b67c2a29c96d7023652
4743e78444a105678bf65c1400651a283db875c15925d2f2791c380bdf5797ad3ecfb4feaf868f20cbae422026e9c61c63b9c679a93c10d46efad725f7a86389
05b3dfb6045ef4bdc9bd7fb4b7e49c4ae8353ef3b6a5b2bd7ed858dc60378db176be17a5d24149f8cbae422026e9c61c63b9c679a93c10d46efad725f7a86389
86ad213343ec82a9187ab7d105e374c724f7a488c8ac86d755976fbc7c4b2b81ef66f270e2da7d19a9440213208f18f93493a0ea277932293c882c810e43c845
03edf31e48a16cdc5afe4f8e0010b28d10929b958141caa452528204d6c6df96e7a4c5da97176f629b383a575bd24967df9b28c6a4a52af7d50865ea8fd8d5f0
d0c5ec82a502e3bcadfbfde0a93715cd5cca6c48afd7c467a0bc3dc52ad2f46f6fb1d233ade4c007a725a4dc88644efca9440213208f18f961c4e7c6a932b5af
c0ff0c48b49f7f33c9bd7fb4b7e49c4a9a11b4f0290509423934da9ad7004c019645e0dd9984026e582255115d8ad586791095c5c8b553e004b08ff433d79053
7060d0fe073057e7a665d0fac02ce03ec593b7f1153c576be380d03eb0ca84403c991a04052eba445573dce62d275425d58563b160d22b67c2a29c96d7023652
8f10d309634521e55afe4f8e0010b28d661ec81f6f4c84f35e6a212a8dd9ea14354e12fe1d38f3f55573dce62d275425d58563b160d22b67c2a29c96d7023652
4036fe3bb1fccadc5afe4f8e0010b28da31bf5dd73313a930f658b9033fb5a4e3ecfb4feaf868f20cbae422026e9c61c63b9c679a93c10d46efad725f7a86389
ca126c6c791a93365afe4f8e0010b28d1f810a24345d3df2dd635e737585d10ba67e7a96e2ecce8244c4fd4bc1c48205cbae422026e9c61caba8f4016853f8ac
868b72e5e69b43855afe4f8e0010b28db4681d25751510af03e7aed81fd5f83ca6836e25b0915d7fe87a304ecbac3ddaa9440213208f18f961c4e7c6a932b5af
e45aafc4c531f5745afe4f8e0010b28d12bb7b7d190eea502a1be9dc9452b4e04a19f02e7aae14295573dce62d275425d58563b160d22b67c2a29c96d7023652
065ff8608303b4ffaf14b7c938fb7d38f4eec5257cb54f111d39a73aeec08144f9715f7ddd5ff1399b383a575bd24967df9b28c6a4a52af7d50865ea8fd8d5f0
449ae8749da64effadfbfde0a93715cd357e7b8d0f28e58f6af16ebc99a2371064d17c2918af2ec568dba569ad392aff75c8e1b95bae4ba7f4215d0a46f5c11d
a4ffa12705fb573e5afe4f8e0010b28d661ec81f6f4c84f3fbab866b406f36ada67e7a96e2ecce82b1d44ea271fe0175cbae422026e9c61caba8f4016853f8ac
c155bdf057a3d325af14b7c938fb7d38c7712dd8ccfd1a483a60e575875062d8e9ebdf6af31887bf9f5e5e6e14cf8df9d0c29b4aecaa8283fef5ab313ac3449d
b9ed3e04d2a7932992d19702986372a47cbea8b23a41942022bbe352e98e64403ecfb4feaf868f20cbae422026e9c61c63b9c679a93c10d46efad725f7a86389
444d41ff14fa3f215afe4f8e0010b28dfd2d411db122c8237e04d40d72aa1925478a87bc5b8e6cf9de553f33863babbe19c6dbe9cf12e26183a336b9b044fff3
3b59b36ad64eb5865afe4f8e0010b28d594cafa798a8a9883a5b22640ea40098ef66f270e2da7d19a9440213208f18f93493a0ea277932293c882c810e43c845
b50196b9367f04075afe4f8e0010b28d9914cdb57e61b4afc19ccc011052f5769b383a575bd24967df9b28c6a4a52af73045ae62201b4682eb10dfe1c573f830
94fab6a88c3a1cac5afe4f8e0010b28df8ffa1c594b77edc48be8aace7175381ef66f270e2da7d19a9440213208f18f93493a0ea277932293c882c810e43c845
f438d5e86becb167fb6c4a8583801127c89b8e88baf6656cde9edef0ef786492089eb3aee0d92af8a9440213208f18f93493a0ea277932293c882c810e43c845
7060d0fe073057e7cd9f9b0fe66d8ad1a9dacbd417af11fbbe1a7ea01b9a816b354e12fe1d38f3f55573dce62d275425d58563b160d22b67c2a29c96d7023652
40ff64b82c572c495afe4f8e0010b28d27bee9a978b6b30bc164e8a1aaa7f06e354e12fe1d38f3f55573dce62d275425d58563b160d22b67c2a29c96d7023652
e83d563d614d5ce99e031e0d8580ec80ee891e43fb604a98bd8cfdb5c4c462063ecfb4feaf868f20cbae422026e9c61c63b9c679a93c10d46efad725f7a86389
e0bee0f3fadd6724adfbfde0a93715cd2f2c258e0d14071a9edf194645c24c108c0fab00abef36a99b383a575bd24967df9b28c6a4a52af7d50865ea8fd8d5f0
39b56735282d8973159b616cdf1f8a124457b705d4c98d6e8bb0e4ac074a4f5706173cf8261daaabe5f0b89dbcc09ff4582255115d8ad58611210fc8d74e7c7d
db4ada8ba367b712221cb79f212ba8f18813c9f7e96809658bb0e4ac074a4f57bcad516439121707ce8d372ab4a8a653cbae422026e9c61caba8f4016853f8ac
*
992e54e4d43a1f0fcf09340bd0d5f5ff4955749bf7e52f782a79b7faefc5c3cda9440213208f18f93493a0ea27793229325e24abc4b788edbe03b43619b590a6
99958ef48c8369a89b383a575bd24967df9b28c6a4a52af73045ae62201b468224682c6eb10e115e3bc0843a16f20485ebd46e06180620c8ba2dfa9086912919
498d7e4dcb150e8e16f86285c2cb91c0a05cdd5f747f764768dba569ad392aff75c8e1b95bae4ba726dc0d28e07c40484c78070f17165c04e75b657c66550c44
95063ffcc3576957cb6cc84c65decfead58563b160d22b67cbc2048d9fd2c486e401d2b4f7d02bab670ab7a6e08e2a12495d0f200b542bcf6d46e987c6b928ac
3bf11de2e2529ba816f86285c2cb91c05109cafbc770d9d268dba569ad392aff75c8e1b95bae4ba726dc0d28e07c40484c78070f17165c04e75b657c66550c44
ce3f334df7442e4d6b99906cb1d5e8f018d9508a5c86edbdcbae422026e9c61c63b9c679a93c10d4135d2c473f5157e73d4e09169f8a23d95c64da74015166cf
e8765672477d963590d770d89657cb8d706b807646b803719b383a575bd24967df9b28c6a4a52af73045ae62201b468224682c6eb10e115e5fd84ccd513623f4
b6f3736230abe961ec7bed061d206a8f5dbac63cd05c269ade553f33863babbe19c6dbe9cf12e261bdddb17c1dc99e0546d60bbe62e0ed67ceb4d4dfb9a01f5f
fbf012923915ae39f8edecf7078a94e7706b807646b80371661c6c5a6c3f664f68dba569ad392aff75c8e1b95bae4ba726dc0d28e07c40483e5ae6400e1b2e74
*+ VDD    5            
*+ XPART    0            
*
6cb956a7405c965e9d1265e81dc80fdfb857a96079dd56ecc117b1cd094d435db7e075afda40f95f1cfb20439c845924a9440213208f18f961c4e7c6a932b5af
*+ ne=3 CJE=.2pF CJC=4pF TF=8ns
*
*+ Bf=40
*
f62e713a3caeeaeeb37e0e3862d4854c75fb4ba62eeb9cb7b504c8c26fefae5875367bca7eae6183cbae422026e9c61c63b9c679a93c10d46efad725f7a86389
*
f62e713a3caeeaee0f17ef232aaf3ca78587617f274ca023fa71c17d1fc7f7181d64ddcfacf2d24168dba569ad392aff75c8e1b95bae4ba7f4215d0a46f5c11d
*+ CJE=1pF
*
*
d6f9f76e50b87b51b1a0e2cca76c0e45587050638c155c453d5149c76957e151f16ea7ea3fd2550b0dbeb8d74e6dc669dd39cb5bd6a03783fc2b5a63bdf362e6
1e0b22458c9e013c706b807646b80371d97f371f7279397dd87b17a839788ddc9b73820c3d345231b3323f8554552caefa8c91cce1d2792c0545fc4817cf0738
dc99c82b4f5239959b383a575bd24967df9b28c6a4a52af73045ae62201b468224682c6eb10e115e3bc0843a16f20485ebd46e06180620c8ba2dfa9086912919
*
$CDNENCFINISH
.ENDS  LM4041_NE1P2
*$
